simulator lang=spectre
include "gpdk090_nmos1v.scs"
