// Generated for: spectre
// Generated on: Jan 26 16:02:58 2020
// Design library name: ee115c
// Design cell name: hw2_NMOS
// Design view name: schematic
simulator lang=spectre
global 0
