// Generated for: spectre
// Generated on: Mar  6 13:09:58 2020
// Design library name: Proj
// Design cell name: sina_1bit_comp
// Design view name: schematic
simulator lang=spectre
global 0
