// Generated for: spectre
// Generated on: Mar  6 12:59:25 2020
// Design library name: TB_PROJ
// Design cell name: new_1bit_comp
// Design view name: schematic
simulator lang=spectre
global 0
