// Generated for: spectre
// Generated on: Mar  4 13:38:41 2020
// Design library name: Proj
// Design cell name: comparator
// Design view name: schematic
simulator lang=spectre
global 0 VSS! VDD!
