// Generated for: spectre
// Generated on: Jan 23 17:50:15 2020
// Design library name: ee115c
// Design cell name: hw2_NMOS
// Design view name: schematic
simulator lang=spectre
global 0
