// Generated for: spectre
// Generated on: Feb 21 20:33:22 2020
// Design library name: ee115c
// Design cell name: FO4-inv
// Design view name: schematic
simulator lang=spectre
global 0 vddd! vdd!
