// Generated for: spectre
// Generated on: Mar  4 12:41:04 2020
// Design library name: Proj
// Design cell name: project1
// Design view name: schematic
simulator lang=spectre
global 0 vdd!
