// Generated for: spectre
// Generated on: Feb  3 21:41:04 2020
// Design library name: ee115c
// Design cell name: HW3_inverters
// Design view name: schematic
simulator lang=spectre
global 0
